	15
SCF DONE -127.530205433
 F    1.754566    0.007656    1.831569
 F    1.652379    5.256600    2.808706
 F    0.553666    2.112360    0.430535
 F    4.698429    3.251398    1.126825
 F    3.663010    1.260568    4.455429
 F    0.032988    2.609662    3.366903
 F    2.531373    2.569628    2.418751
 F    4.467801    0.653128    1.605922
 F    2.214214    4.180141    0.381814
 F    4.527537    4.188516    3.667567
Pb    5.210620    2.111058    3.103582
Pb    1.537590    1.010099    3.799633
Pb    2.733706    1.476967    0.392332
Pb    0.238791    3.962272    1.613429
Pb    3.667936    5.152243    1.837798
