	15
SCF DONE -127.555003503
 F    4.479268    2.318675    4.040887
 F    1.159960    1.006550    4.030918
 F    2.466079    2.239588    2.050045
 F    3.088037   -0.176236    1.318903
 F    0.038440    1.594987    1.132924
 F    0.926890    4.384405    1.414629
 F    2.979069    6.101810    2.635525
 F    2.688842    3.257826   -0.583837
 F    2.010263    3.815997    4.213111
 F    4.414600    4.068388    1.666805
Pb    1.931376    1.266051    0.016509
Pb    3.258970    0.569537    3.446981
Pb    2.789233    5.173686    0.569063
Pb    0.378342    2.887229    2.989533
Pb    4.057757    4.508216    3.845744
